/batch
/config,noeldb,1     ! force off writing results to database
*get,_wallstrt,active,,time,wall
! ANSYS input file written by Workbench version 2022 R2
! File used for geometry attach: C:\Users\Marko\Documents\1 l Dokumenti\1 l Fakulteta\5 l 5. semester\3 l Dinamika togih teles\1 l Seminar\metamaterials\Ansys\Models\BaseCell_v4.STEP
/title,BaseCell_v4--Static Structural (B5)
! ****** Begin Custom Load Command Snippet ******
/COM, ACT Extensions:
/COM,     LSDYNA, 2022.2
/COM,     5f463412-bd3e-484b-87e7-cbc0a665e474, wbex
/COM,/COM,     ANSYSMotion, 2022.2
/COM,     20180725-3f81-49eb-9f31-41364844c769, wbex
/COM,
! ****** End   Custom Load Command Snippet ******
*DIM,_wb_ProjectScratch_dir,string,248
_wb_ProjectScratch_dir(1) = 'C:\Users\Marko\Documents\1 l Dokumenti\1 l Fakulteta\5 l 5. semester\3 l Dinamika togih teles\1 l Seminar\metamaterials\Ansys\_ProjectScratch\Scr3D93\'
*DIM,_wb_SolverFiles_dir,string,248
_wb_SolverFiles_dir(1) = 'C:\Users\Marko\Documents\1 l Dokumenti\1 l Fakulteta\5 l 5. semester\3 l Dinamika togih teles\1 l Seminar\metamaterials\Ansys\BaseCell_v4_files\dp0\SYS-1\MECH\'
*DIM,_wb_userfiles_dir,string,248
_wb_userfiles_dir(1) = 'C:\Users\Marko\Documents\1 l Dokumenti\1 l Fakulteta\5 l 5. semester\3 l Dinamika togih teles\1 l Seminar\metamaterials\Ansys\BaseCell_v4_files\user_files\'
/com,--- Data in consistent MKS units. See Solving Units in the help system for more information.
/units,MKS
/nopr
/wb,file,start              !  signify a WB generated input file
/prep7
! Turn off shape checking because checks already performed inside WB mesher.
! See help system for more information.
SHPP,OFF,,NOWARN
/nolist
etcon,set             ! allow ANSYS to choose best KEYOP's for 180x elements, resets any applicable keyopt to MAPDL defaults
/com,*********** Nodes for the whole assembly ***********
nblock,3,,5938
(1i9,3e20.9e3)
        1     1.666666667E-03     1.000000000E-03     3.333333333E-03
        2     1.666666667E-03     1.000000000E-03    -3.333333333E-03
        3     1.666666667E-03     1.000000000E-03     1.666666667E-03
        4     1.666666667E-03     1.000000000E-03     0.000000000E+00
        5     1.666666667E-03     1.000000000E-03    -1.666666667E-03
        6     1.666666667E-03     6.000000000E-04     3.333333333E-03
        7     1.666666667E-03     6.000000000E-04     2.733333333E-03
        8     1.666666667E-03     0.000000000E+00     2.733333333E-03
        9     1.666666667E-03     0.000000000E+00    -2.733333333E-03
       10     1.666666667E-03     0.000000000E+00     1.366666667E-03
       11     1.666666667E-03     0.000000000E+00     0.000000000E+00
       12     1.666666667E-03     0.000000000E+00    -1.366666667E-03
       13     1.666666667E-03     6.000000000E-04    -2.733333333E-03
       14     1.666666667E-03     6.000000000E-04    -3.333333333E-03
       15    -1.666666667E-03     1.000000000E-03    -3.333333333E-03
       16    -2.220446049E-19     1.000000000E-03    -3.333333333E-03
       17     6.666666667E-03     6.000000000E-04    -3.333333333E-03
       18     5.000000000E-03     6.000000000E-04    -3.333333333E-03
       19     3.333333333E-03     6.000000000E-04    -3.333333333E-03
       20     6.666666667E-03     0.000000000E+00    -3.333333333E-03
! ... 5380 like lines cut
/wb,elem,start            !  set before creation of elements
/com,*********** Elements for Body 1 "BaseCell_v4-FreeParts|Chamfer4" ***********
et,1,187
eblock,19,solid,,2683
(19i9)
        1        1        1        1        0        0        0        0       10        0        1      861      915      942      934     5264     5389     5267     5266
     5387     5399
        1        1        1        1        0        0        0        0       10        0        2      861      942      915      933     5267     5389     5264     5265
     5398     5386
        1        1        1        1        0        0        0        0       10        0        3      716      861      942      934     4572     5267     4576     4575
     5266     5399
        1        1        1        1        0        0        0        0       10        0        4      716      942      861      933     4576     5267     4572     4574
     5398     5265
        1        1        1        1        0        0        0        0       10        0        5      166      942      175      839     2078     2135     2073     2076
     5185     2134
        1        1        1        1        0        0        0        0       10        0        6      148      942      175      166     1968     2135     1962     1961
     2078     2073
        1        1        1        1        0        0        0        0       10        0        7      839      942      915      934     5185     5389     5181     5184
     5399     5387
        1        1        1        1        0        0        0        0       10        0        8      839      915      942      933     5181     5389     5185     5183
     5386     5398
        1        1        1        1        0        0        0        0       10        0        9      149      942      716      933     1975     4576     1971     1974
     5398     4574
        1        1        1        1        0        0        0        0       10        0       10      175      942      738      839     2135     4662     2133     2134
     5185     4661
! ... 5347 like lines cut
!Material Id = {3A19B0BC-08A9-4A40-BCC0-CEF60B32D473}
/wb,elem,end               !  done creating elements
/com,*********** Send User Defined Coordinate System(s) ***********
csys,0
toffst,273.15,  ! Temperature offset from absolute zero
/com,*********** Set Reference Temperature ***********
tref,22.
/wb,mat,start              !  starting to send materials
/com,*********** Send Materials ***********
Temperature = 'TEMP' ! Temperature
MP,DENS,1,1339,	! kg m^-3
MP,EX,1,2898000000,	! Pa
MP,NUXY,1,0.3887,
MP,ALPX,1,0.000117,	! C^-1
MP,KXX,1,0.1702,	! W m^-1 C^-1
MP,C,1,1199,	! J kg^-1 C^-1
MP,UVID,1,aeb70a6f-9110-4b71-beca-4502ea6a2df8
MP,UMID,1,5cc4945b-4e18-4193-9590-e343a797919c

/wb,mat,end                !  done sending materials
!************************* Model Summary ********************
!BaseCell_v4-FreeParts|Chamfer4,	Plastic, PET (amorphous),	matid,	1
!************************* End Model Summary ********************
! get the diagonal of the bounding box. Needed later for other things
*get,_xmin,node,,mnloc,x
*get,_ymin,node,,mnloc,y
*get,_zmin,node,,mnloc,z
*get,_xmax,node,,mxloc,x
*get,_ymax,node,,mxloc,y
*get,_zmax,node,,mxloc,z
_ASMDIAG=(_xmax-_xmin)*(_xmax-_xmin)+(_ymax-_ymin)*(_ymax-_ymin)+(_zmax-_zmin)*(_zmax-_zmin)
_ASMDIAG=SQRT(_ASMDIAG)
/wb,contact,start          !  starting to send contact
/wb,contact,end            !  done creating contacts
/golist
/wb,load,start             !  starting to send loads
/com,*********** Fixed Supports ***********
CMBLOCK,_FIXEDSU,NODE,      322
(8i10)
       217       218       233       234       235       236       237       238
       239       254       255       256       257       258       259       260
       261       262       263       264       265       266       267       268
       269       270       271       272       273       274       275       276
       277       278       279       280       281       282       283       284
       285       286       287       288       303       304       305       306
       307       308       323       324       325       326       327       328
       329       330       331       332       333       334       335       336
       337       338       339       340       341       342       343       344
       740       741       742       743       744       745       746       747
       748       749       750       751       752       753       769       770
       771       772       773       774       775       776       777       778
       779       780       781       782      2384      2385      2387      2388
      2454      2456      2457      2459      2460      2462      2463      2464
      2466      2467      2470      2471      2472      2474      2475      2479
      2480      2545      2546      2547      2550      2551      2552      2556
      2557      2559      2560      2561      2565      2566      2569      2570
      2572      2574      2576      2578      2579      2581      2584      2586
      2588      2589      2591      2594      2596      2598      2599      2602
      2605      2606      2608      2609      2611      2614      2616      2618
! ... 21 like lines cut
cmsel,s,_FIXEDSU
d,all,all
nsel,all
/com,*********** Define Force Using Surface Effect Elements ***********
local,12,0,0.,0.,0.,0.,0.,0.
csys,0
et,2,154
eblock,10,,,22
(15i9)
     4326        2        2        2       12      158      531      738      738     2029     3720      738     2031
     4327        2        2        2       12      119      532      738      738     1767     3721      738     1768
     4328        2        2        2       12      115      532      527      527     1745     3715      527     1744
     4329        2        2        2       12      172      738      530      530     2123     3719      530     2122
     4330        2        2        2       12      174      529      739      739     2127     3718      739     2128
     4331        2        2        2       12      739      118      174      174     1762     1760      174     2128
     4332        2        2        2       12      118      172      173      173     1758     2120      173     1759
     4333        2        2        2       12      119      738      118      118     1768     1761      118     1756
     4334        2        2        2       12      157      530      738      738     2020     3719      738     2022
     4335        2        2        2       12      117      739      533      533     1754     3722      533     1753
     4336        2        2        2       12      208      533      739      739     2334     3722      739     2336
     4337        2        2        2       12      208      739      534      534     2336     3724      534     2335
     4338        2        2        2       12      157      738      531      531     2022     3720      531     2021
     4339        2        2        2       12      116      528      533      533     1748     3716      533     1749
     4340        2        2        2       12      158      738      532      532     2031     3721      532     2030
     4341        2        2        2       12      119      527      532      532     1766     3715      532     1767
     4342        2        2        2       12      118      738      172      172     1761     2123      172     1758
     4343        2        2        2       12      171      534      739      739     2118     3724      739     2119
     4344        2        2        2       12      117      533      528      528     1753     3716      528     1752
     4345        2        2        2       12      117      118      739      739     1750     1762      739     1754
     4346        2        2        2       12      174      118      173      173     1760     1759      173     2125
     4347        2        2        2       12      171      739      529      529     2119     3718      529     2117
-1
esel,s,type,,2
keyop,2,2,1                ! Apply load in local coordinate system
keyop,2,7,1                ! Use original area so load is constant in large deformation
esel,all
/gst,on,on
fini
*get,_numnode,node,0,count
*get,_numelem,elem,0,count
*get, _MAXELEMNUM, elem, 0, NUM, MAX
*get, _MAXNODENUM, node, 0, NUM, MAX
*get, _MAXELEMTYPE, etyp, 0, NUM, MAX
*get, _MAXREALCONST, rcon, 0, NUM, MAX
/go
/wb,load,end               !  done creating loads
/com,--- Number of total nodes = %_numnode%
/com,--- Number of contact elements = 22
/com,--- Number of spring elements = 0
/com,--- Number of bearing elements = 0
/com,--- Number of solid elements = 2683
/com,--- Number of condensed parts = 0
/com,--- Number of total elements = %_numelem%
*get,_wallbsol,active,,time,wall
/com,****************************************************************************
/com,*************************    SOLUTION       ********************************
/com,****************************************************************************
/solu
antype,0                   ! static analysis
_thickRatio=  1     ! Ratio of thick parts in the model
eqsl,pcg,1e-8,,,,,,1
cntr,print,1               ! print out contact info and also make no initial contact an error
dmpoption,emat,no             ! Don't combine emat file for DANSYS
dmpoption,esav,no             ! Don't combine esav file for DANSYS
nldiag,cont,iter           ! print out contact info each equilibrium iteration
rescontrol,,none                 ! Do not keep any restart files
/com,****************************************************
/com,******************* SOLVE FOR LS 1 OF 1 ****************
esel,s,type,,2
nsle
sfe,all,1,pres,1,0.
sfe,all,2,pres,1,-44999.9999999863
sfe,all,3,pres,1,0.
nsel,all
esel,all
/nopr
/gopr
nsub,1,1,1
time,1.
outres,erase
outres,all,none
outres,nsol,all,
outres,rsol,all
outres,eangl,all
outres,etmp,all
outres,veng,all
outres,strs,all,
outres,epel,all,
outres,eppl,all,
outres,cont,all,
! *********** WB SOLVE COMMAND ***********
! check interactive state
*get,ANSINTER_,active,,int
*if,ANSINTER_,ne,0,then
/eof
*endif
solve
/com *************** Write FE CONNECTORS ********* 
CEWRITE,file,ce,,INTE
/com,****************************************************
/com,*************** FINISHED SOLVE FOR LS 1 *************
*get,_wallasol,active,,time,wall
/nopr
*get,_numnode,node,0,count
*get,_numelem,elem,0,count
*get, _MAXELEMNUM, elem, 0, NUM, MAX
*get, _MAXNODENUM, node, 0, NUM, MAX,,,INTERNAL
*get, _MAXELEMTYPE, etyp, 0, NUM, MAX
*get, _MAXREALCONST, rcon, 0, NUM, MAX
*get,_NSOLTHREADS,active,0,ntfs
*get,_NSOLPROCESSES,active,0,npfs
/gopr
*get,_PCGITER,active,,solu,cgiter
/post1
xmlo,ENCODING,ISO-8859-1
xmlo,parm
/xml,parm,xml
fini
/gopr
*get,_walldone,active,,time,wall
_preptime=(_wallbsol-_wallstrt)*3600
_solvtime=(_wallasol-_wallbsol)*3600
_posttime=(_walldone-_wallasol)*3600
_totaltim=(_walldone-_wallstrt)*3600
*get,_dlbratio,active,0,solu,dlbr
*get,_combtime,active,0,solu,comb
*get,_ssmode,active,0,solu,ssmm
*get,_ndofs,active,0,solu,ndof
*get,_sol_end_time,active,0,set,time
*if,_sol_end_time,eq,1.000000,then
/fclean				!clean distributed files
*endif
/com,--- Total number of nodes = %_numnode%
/com,--- Total number of elements = %_numelem%
/com,--- Element load balance ratio = %_dlbratio%
/com,--- Time to combine distributed files = %_combtime%
/com,--- Sparse memory mode = %_ssmode%
/com,--- Number of DOF = %_ndofs%
/wb,file,end               ! done with WB generated input
