/batch
/config,noeldb,1     ! force off writing results to database
*get,_wallstrt,active,,time,wall
! ANSYS input file written by Workbench version 2022 R2
! File used for geometry attach: C:\Users\Marko\Documents\1 l Dokumenti\1 l Fakulteta\5 l 5. semester\3 l Dinamika togih teles\1 l Seminar\metamaterials\Ansys\Models\TestSpring.STEP
/title,Spring_modal--Modal (A5)
! ****** Begin Custom Load Command Snippet ******
/COM, ACT Extensions:
/COM,     LSDYNA, 2022.2
/COM,     5f463412-bd3e-484b-87e7-cbc0a665e474, wbex
/COM,/COM,     ANSYSMotion, 2022.2
/COM,     20180725-3f81-49eb-9f31-41364844c769, wbex
/COM,
! ****** End   Custom Load Command Snippet ******
*DIM,_wb_ProjectScratch_dir,string,248
_wb_ProjectScratch_dir(1) = 'C:\Users\Marko\Documents\1 l Dokumenti\1 l Fakulteta\5 l 5. semester\3 l Dinamika togih teles\1 l Seminar\metamaterials\Ansys\_ProjectScratch\ScrA7FE\'
*DIM,_wb_SolverFiles_dir,string,248
_wb_SolverFiles_dir(1) = 'C:\Users\Marko\Documents\1 l Dokumenti\1 l Fakulteta\5 l 5. semester\3 l Dinamika togih teles\1 l Seminar\metamaterials\Ansys\Spring_modal_files\dp0\SYS\MECH\'
*DIM,_wb_userfiles_dir,string,248
_wb_userfiles_dir(1) = 'C:\Users\Marko\Documents\1 l Dokumenti\1 l Fakulteta\5 l 5. semester\3 l Dinamika togih teles\1 l Seminar\metamaterials\Ansys\Spring_modal_files\user_files\'
/com,--- Data in consistent MKS units. See Solving Units in the help system for more information.
/units,MKS
/nopr
/wb,file,start              !  signify a WB generated input file
/prep7
! Turn off shape checking because checks already performed inside WB mesher.
! See help system for more information.
SHPP,OFF,,NOWARN
/nolist
etcon,set             ! allow ANSYS to choose best KEYOP's for 180x elements, resets any applicable keyopt to MAPDL defaults
/com,*********** Nodes for the whole assembly ***********
nblock,3,,3286
(1i9,3e20.9e3)
        1     0.000000000E+00     2.165000000E-02     3.827021247E-19
        2    -3.171851928E-26     1.567889820E-02     6.243774163E-03
        3     0.000000000E+00     2.135885648E-02     1.885345966E-03
        4     0.000000000E+00     2.051255059E-02     3.595041930E-03
        5     0.000000000E+00     1.918992919E-02     4.969802486E-03
        6     0.000000000E+00     1.751421553E-02     5.881546795E-03
        7    -7.646417726E-19     1.567889820E-02    -6.243774163E-03
        8    -2.308882902E-19     2.135885648E-02    -1.885345966E-03
        9    -4.402656593E-19     2.051255059E-02    -3.595041930E-03
       10    -6.086252707E-19     1.918992919E-02    -4.969802486E-03
       11    -7.202817457E-19     1.751421553E-02    -5.881546795E-03
       12    -1.500000000E-03     1.573067582E-02    -6.058312761E-03
       13    -1.500000000E-03     1.449920340E-02    -6.000088790E-03
       14    -7.563664444E-19     1.444237169E-02    -6.176200128E-03
       15     0.000000000E+00     9.150000000E-03     3.827021247E-19
       16    -6.680220533E-19     1.234917979E-02    -5.454814022E-03
       17    -4.958494063E-19     1.063882728E-02    -4.048917669E-03
       18    -2.614539230E-19     9.525941794E-03    -2.134933299E-03
       19     7.258466961E-26     1.444237169E-02     6.176200128E-03
       20     0.000000000E+00     1.234917979E-02     5.454814022E-03
! ... 2969 like lines cut
/wb,elem,start            !  set before creation of elements
/com,*********** Elements for Body 1 "TestSpring-FreeParts|Revolve1" ***********
et,1,187
eblock,19,solid,,1533
(19i9)
        1        1        1        1        0        0        0        0       10        0        1      254      272      517      462     1909     2010     1914     1912
     2008     2827
        1        1        1        1        0        0        0        0       10        0        2      254      276      517      272     1911     2032     1914     1909
     2005     2010
        1        1        1        1        0        0        0        0       10        0        3      272      280      517      468     2006     2055     2010     2009
     2054     2855
        1        1        1        1        0        0        0        0       10        0        4      272      517      280      282     2010     2055     2006     2007
     2062     2052
        1        1        1        1        0        0        0        0       10        0        5      272      517      462      468     2010     2827     2008     2009
     2855     2823
        1        1        1        1        0        0        0        0       10        0        6      276      517      454      514     2032     2781     2030     2031
     2988     2780
        1        1        1        1        0        0        0        0       10        0        7      454      517      462      514     2781     2827     2773     2780
     2988     2826
        1        1        1        1        0        0        0        0       10        0        8      280      442      517      468     2053     2706     2055     2054
     2703     2855
        1        1        1        1        0        0        0        0       10        0        9      280      282      517      442     2052     2062     2055     2053
     2060     2706
        1        1        1        1        0        0        0        0       10        0       10      272      276      517      282     2005     2032     2010     2007
     2028     2062
! ... 3047 like lines cut
!Material Id = {60C49D6B-FE30-4C2B-8A36-8B749879C8F7}
/wb,elem,end               !  done creating elements
/com,*********** Send User Defined Coordinate System(s) ***********
csys,0
toffst,273.15,  ! Temperature offset from absolute zero
/com,*********** Set Reference Temperature ***********
tref,22.
/wb,mat,start              !  starting to send materials
/com,*********** Send Materials ***********
Temperature = 'TEMP' ! Temperature
MP,DENS,1,1339,	! kg m^-3
MP,EX,1,2898000000,	! Pa
MP,NUXY,1,0.3887,
MP,ALPX,1,0.000117,	! C^-1
MP,KXX,1,0.1702,	! W m^-1 C^-1
MP,C,1,1199,	! J kg^-1 C^-1
MP,UVID,1,011a0099-1240-4c43-b49c-3f6a456006a4
MP,UMID,1,5cc4945b-4e18-4193-9590-e343a797919c

/wb,mat,end                !  done sending materials
!************************* Model Summary ********************
!TestSpring-FreeParts|Revolve1,	Plastic, PET (amorphous),	matid,	1
!************************* End Model Summary ********************
! get the diagonal of the bounding box. Needed later for other things
*get,_xmin,node,,mnloc,x
*get,_ymin,node,,mnloc,y
*get,_zmin,node,,mnloc,z
*get,_xmax,node,,mxloc,x
*get,_ymax,node,,mxloc,y
*get,_zmax,node,,mxloc,z
_ASMDIAG=(_xmax-_xmin)*(_xmax-_xmin)+(_ymax-_ymin)*(_ymax-_ymin)+(_zmax-_zmin)*(_zmax-_zmin)
_ASMDIAG=SQRT(_ASMDIAG)
/wb,contact,start          !  starting to send contact
/wb,contact,end            !  done creating contacts
/golist
/wb,load,start             !  starting to send loads
/com,*********** Fixed Supports ***********
CMBLOCK,_FIXEDSU,NODE,       57
(8i10)
        34        46        47        84        96        97       131       143
       144       177       189       190       225       226       227       228
       413       414       415       808       811       876       880       883
       884      1063      1066      1068      1133      1137      1138      1141
      1291      1293      1355      1358      1364      1365      1509      1512
      1513      1575      1579      1581      1585      1743      1747      1748
      1749      1752      1753      1755      1756      1761      1762      2498
      2499
cmsel,s,_FIXEDSU
d,all,all
nsel,all
/gst,on,on
fini
*get,_numnode,node,0,count
*get,_numelem,elem,0,count
*get, _MAXELEMNUM, elem, 0, NUM, MAX
*get, _MAXNODENUM, node, 0, NUM, MAX
*get, _MAXELEMTYPE, etyp, 0, NUM, MAX
*get, _MAXREALCONST, rcon, 0, NUM, MAX
/go
/wb,load,end               !  done creating loads
/com,--- Number of total nodes = %_numnode%
/com,--- Number of contact elements = 0
/com,--- Number of spring elements = 0
/com,--- Number of bearing elements = 0
/com,--- Number of solid elements = 1533
/com,--- Number of condensed parts = 0
/com,--- Number of total elements = %_numelem%
*get,_wallbsol,active,,time,wall
/solu
antype,2                   ! modal analysis
_thickRatio=  1     ! Ratio of thick parts in the model
modopt,lanb,5
outres,erase
outres,all,none
outres,nsol,all
mxpand                    ! default expand in case of complex solution
dmpopt,esav,no
dmpopt,emat,no
dmpopt,full,no
! *********** WB SOLVE COMMAND ***********
! check interactive state
*get,ANSINTER_,active,,int
*if,ANSINTER_,ne,0,then
/eof
*endif
solve
/com *************** Write FE CONNECTORS ********* 
CEWRITE,file,ce,,INTE
*get,_nmodalsolproc,active,0,numcpu
fini
/nopr
*get,_numnode,node,0,count
*get,_numelem,elem,0,count
*get, _MAXELEMNUM, elem, 0, NUM, MAX
*get, _MAXNODENUM, node, 0, NUM, MAX,,,INTERNAL
*get, _MAXELEMTYPE, etyp, 0, NUM, MAX
*get, _MAXREALCONST, rcon, 0, NUM, MAX
*get,_NSOLTHREADS,active,0,ntfs
*get,_NSOLPROCESSES,active,0,npfs
/gopr
*get,_wallasol,active,,time,wall
/post1
/nopr
*dim,_direction,CHAR,6,1
_direction(1) = 'X'
_direction(2) = 'Y'
_direction(3) = 'Z'
_direction(4) = 'ROTX'
_direction(5) = 'ROTY'
_direction(6) = 'ROTZ'
*get,_lastLS,active,0,set,LSTP
*get,_beginset,active,0,set,nset,first,_lastLS
*get,_endset,active,0,set,nset,last,_lastLS
_nummodes = 0
*if,_endset,gt,0,then
_nummodes = _endset - _beginset + 1
*endif
*do,i_mode,1,_nummodes
   *do,j_component,1,6
			*get,PFACT_%i_mode%_%j_component%,MODE,%i_mode%,PFACT,,DIREC,_direction(%j_component%)
   *enddo
*enddo
*dim,_tmdirection,CHAR,6,1
_tmdirection(1) = 'X'
_tmdirection(2) = 'Y'
_tmdirection(3) = 'Z'
_tmdirection(4) = 'X'
_tmdirection(5) = 'Y'
_tmdirection(6) = 'Z'
*do,j_component,1,6
    *if,j_component,gt,3,then
        *get,TOTALMASS_%j_component%,ELEM,0,IOR,_tmdirection(%j_component%)
    *else
        *get,TOTALMASS_%j_component%,ELEM,0,MTOT,_tmdirection(%j_component%)
    *endif
*enddo
/gopr
xmlo,ENCODING,ISO-8859-1
xmlo,parm
/xml,parm,xml
fini
/gopr
*get,_walldone,active,,time,wall
_preptime=(_wallbsol-_wallstrt)*3600
_solvtime=(_wallasol-_wallbsol)*3600
_posttime=(_walldone-_wallasol)*3600
_totaltim=(_walldone-_wallstrt)*3600
*get,_dlbratio,active,0,solu,dlbr
*get,_combtime,active,0,solu,comb
*get,_ssmode,active,0,solu,ssmm
*get,_ndofs,active,0,solu,ndof
/fclean				!clean distributed files
/com,--- Total number of nodes = %_numnode%
/com,--- Total number of elements = %_numelem%
/com,--- Element load balance ratio = %_dlbratio%
/com,--- Time to combine distributed files = %_combtime%
/com,--- Sparse memory mode = %_ssmode%
/com,--- Number of DOF = %_ndofs%
/wb,file,end               ! done with WB generated input
