/batch
/config,noeldb,1     ! force off writing results to database
*get,_wallstrt,active,,time,wall
! ANSYS input file written by Workbench version 2022 R2
! File used for geometry attach: C:\Users\Marko\Documents\1 l Dokumenti\1 l Fakulteta\5 l 5. semester\3 l Dinamika togih teles\1 l Seminar\metamaterials\Ansys\Models\Tester.STEP
/title,Young modulus--Modal (B5)
! ****** Begin Custom Load Command Snippet ******
/COM, ACT Extensions:
/COM,     LSDYNA, 2022.2
/COM,     5f463412-bd3e-484b-87e7-cbc0a665e474, wbex
/COM,/COM,     ANSYSMotion, 2022.2
/COM,     20180725-3f81-49eb-9f31-41364844c769, wbex
/COM,
! ****** End   Custom Load Command Snippet ******
*DIM,_wb_ProjectScratch_dir,string,248
_wb_ProjectScratch_dir(1) = 'C:\Users\Marko\Documents\1 l Dokumenti\1 l Fakulteta\5 l 5. semester\3 l Dinamika togih teles\1 l Seminar\metamaterials\Ansys\_ProjectScratch\Scr9C16\'
*DIM,_wb_SolverFiles_dir,string,248
_wb_SolverFiles_dir(1) = 'C:\Users\Marko\Documents\1 l Dokumenti\1 l Fakulteta\5 l 5. semester\3 l Dinamika togih teles\1 l Seminar\metamaterials\Ansys\Young modulus_files\dp0\SYS\MECH\'
*DIM,_wb_userfiles_dir,string,248
_wb_userfiles_dir(1) = 'C:\Users\Marko\Documents\1 l Dokumenti\1 l Fakulteta\5 l 5. semester\3 l Dinamika togih teles\1 l Seminar\metamaterials\Ansys\Young modulus_files\user_files\'
/com,--- Data in consistent MKS units. See Solving Units in the help system for more information.
/units,MKS
/nopr
/wb,file,start              !  signify a WB generated input file
/prep7
! Turn off shape checking because checks already performed inside WB mesher.
! See help system for more information.
SHPP,OFF,,NOWARN
/nolist
etcon,set             ! allow ANSYS to choose best KEYOP's for 180x elements, resets any applicable keyopt to MAPDL defaults
/com,*********** Nodes for the whole assembly ***********
nblock,3,,914
(1i9,3e20.9e3)
        1     5.378530677E-03     5.777684250E-04    -4.440892099E-19
        2     3.319495620E-02     1.006862779E-03     0.000000000E+00
        3    -3.645259495E-02     3.082641962E-03    -4.440892099E-19
        4    -3.645259495E-02     3.082641962E-03     3.750000000E-03
        5     3.319495620E-02     1.006862779E-03     3.750000000E-03
        6     5.378530677E-03     5.777684250E-04     3.750000000E-03
        7     5.378530677E-03     5.777684250E-04    -3.750000000E-03
        8     3.319495620E-02     1.006862779E-03    -3.750000000E-03
        9    -3.645259495E-02     3.082641962E-03    -3.750000000E-03
       10     3.625000000E-02     6.000000000E-03    -3.750000000E-03
       11     3.250000000E-02     3.500000000E-03    -3.750000000E-03
       12     3.250000000E-02     6.000000000E-03    -3.750000000E-03
       13    -3.625000000E-02     6.000000000E-03    -3.750000000E-03
       14    -3.250000000E-02     3.500000000E-03    -3.750000000E-03
       15    -3.250000000E-02     6.000000000E-03    -3.750000000E-03
       16    -3.600000000E-02     0.000000000E+00    -3.750000000E-03
       17    -3.400000000E-02     0.000000000E+00    -3.750000000E-03
       18    -3.200000000E-02     0.000000000E+00    -3.750000000E-03
       19    -3.000000000E-02     0.000000000E+00    -3.750000000E-03
       20    -2.800000000E-02     0.000000000E+00    -3.750000000E-03
! ... 812 like lines cut
/wb,elem,start            !  set before creation of elements
/com,*********** Elements for Body 1 "Tester-FreeParts|Boss-Extrude2" ***********
et,1,186
keyo,1,2,1          ! set full integration on SOLID186
eblock,19,solid,,92
(19i9)
        1        1        1        1        0        0        0        0       20        0        1      126      162      211      210      127      163      214      215
      601      675      773      602      604      677      780      605      600      674      776      774
        1        1        1        1        0        0        0        0       20        0        2       17       18       60       59      211      210      126      162
      319      323      435      320      773      602      601      675      321      324      438      436
        1        1        1        1        0        0        0        0       20        0        3      125      126      210      209      128      127      215      216
      597      602      771      599      603      605      782      607      598      600      774      772
        1        1        1        1        0        0        0        0       20        0        4       18       19       61       60      210      209      125      126
      322      326      437      323      771      599      597      602      324      327      440      438
        1        1        1        1        0        0        0        0       20        0        5      124      125      209      208      129      128      216      217
      594      599      769      596      606      607      783      609      595      598      772      770
        1        1        1        1        0        0        0        0       20        0        6       19       20       62       61      209      208      124      125
      325      329      439      326      769      596      594      599      327      330      442      440
        1        1        1        1        0        0        0        0       20        0        7      123      124      208      207      130      129      217      218
      591      596      767      593      608      609      784      611      592      595      770      768
        1        1        1        1        0        0        0        0       20        0        8       20       21       63       62      208      207      123      124
      328      332      441      329      767      593      591      596      330      333      444      442
        1        1        1        1        0        0        0        0       20        0        9      122      123      207      206      131      130      218      219
      588      593      765      590      610      611      785      613      589      592      768      766
        1        1        1        1        0        0        0        0       20        0       10       21       22       64       63      207      206      122      123
      331      335      443      332      765      590      588      593      333      336      446      444
! ... 165 like lines cut
!Material Id = {FFD1015C-0D77-4A97-86F1-6F03CEC50C26}
/wb,elem,end               !  done creating elements
/com,*********** Send User Defined Coordinate System(s) ***********
csys,0
toffst,273.15,  ! Temperature offset from absolute zero
/com,*********** Set Reference Temperature ***********
tref,22.
/wb,mat,start              !  starting to send materials
/com,*********** Send Materials ***********
Temperature = 'TEMP' ! Temperature
MP,DENS,1,1339,	! kg m^-3
MP,EX,1,2898000000,	! Pa
MP,NUXY,1,0.3887,
MP,ALPX,1,0.000117,	! C^-1
MP,KXX,1,0.1702,	! W m^-1 C^-1
MP,C,1,1199,	! J kg^-1 C^-1
MP,UVID,1,999d5759-4199-4ba0-96cc-e12149c5ba37
MP,UMID,1,5cc4945b-4e18-4193-9590-e343a797919c

/wb,mat,end                !  done sending materials
!************************* Model Summary ********************
!Tester-FreeParts|Boss-Extrude2,	Plastic, PET (amorphous),	matid,	1
!************************* End Model Summary ********************
! get the diagonal of the bounding box. Needed later for other things
*get,_xmin,node,,mnloc,x
*get,_ymin,node,,mnloc,y
*get,_zmin,node,,mnloc,z
*get,_xmax,node,,mxloc,x
*get,_ymax,node,,mxloc,y
*get,_zmax,node,,mxloc,z
_ASMDIAG=(_xmax-_xmin)*(_xmax-_xmin)+(_ymax-_ymin)*(_ymax-_ymin)+(_zmax-_zmin)*(_zmax-_zmin)
_ASMDIAG=SQRT(_ASMDIAG)
/wb,contact,start          !  starting to send contact
/wb,contact,end            !  done creating contacts
/golist
/wb,load,start             !  starting to send loads
/com,*********** Fixed Supports ***********
CMBLOCK,_FIXEDSU,NODE,       42
(8i10)
        10        12        13        15        55        58       166       167
       172       173       252       253       254       255       258       259
       260       261       298       301       302       307       308       309
       310       315       429       434       686       687       688       697
       698       699       821       822       823       824       828       829
       830       831
cmsel,s,_FIXEDSU
d,all,all
nsel,all
/gst,on,on
fini
*get,_numnode,node,0,count
*get,_numelem,elem,0,count
*get, _MAXELEMNUM, elem, 0, NUM, MAX
*get, _MAXNODENUM, node, 0, NUM, MAX
*get, _MAXELEMTYPE, etyp, 0, NUM, MAX
*get, _MAXREALCONST, rcon, 0, NUM, MAX
/go
/wb,load,end               !  done creating loads
/com,--- Number of total nodes = %_numnode%
/com,--- Number of contact elements = 0
/com,--- Number of spring elements = 0
/com,--- Number of bearing elements = 0
/com,--- Number of solid elements = 92
/com,--- Number of condensed parts = 0
/com,--- Number of total elements = %_numelem%
*get,_wallbsol,active,,time,wall
/solu
antype,2                   ! modal analysis
_thickRatio=  0     ! Ratio of thick parts in the model
modopt,lanb,6
outres,erase
outres,all,none
outres,nsol,all
mxpand                    ! default expand in case of complex solution
dmpopt,esav,no
dmpopt,emat,no
dmpopt,full,no
! *********** WB SOLVE COMMAND ***********
! check interactive state
*get,ANSINTER_,active,,int
*if,ANSINTER_,ne,0,then
/eof
*endif
solve
/com *************** Write FE CONNECTORS ********* 
CEWRITE,file,ce,,INTE
*get,_nmodalsolproc,active,0,numcpu
fini
/nopr
*get,_numnode,node,0,count
*get,_numelem,elem,0,count
*get, _MAXELEMNUM, elem, 0, NUM, MAX
*get, _MAXNODENUM, node, 0, NUM, MAX,,,INTERNAL
*get, _MAXELEMTYPE, etyp, 0, NUM, MAX
*get, _MAXREALCONST, rcon, 0, NUM, MAX
*get,_NSOLTHREADS,active,0,ntfs
*get,_NSOLPROCESSES,active,0,npfs
/gopr
*get,_wallasol,active,,time,wall
/post1
/nopr
*dim,_direction,CHAR,6,1
_direction(1) = 'X'
_direction(2) = 'Y'
_direction(3) = 'Z'
_direction(4) = 'ROTX'
_direction(5) = 'ROTY'
_direction(6) = 'ROTZ'
*get,_lastLS,active,0,set,LSTP
*get,_beginset,active,0,set,nset,first,_lastLS
*get,_endset,active,0,set,nset,last,_lastLS
_nummodes = 0
*if,_endset,gt,0,then
_nummodes = _endset - _beginset + 1
*endif
*do,i_mode,1,_nummodes
   *do,j_component,1,6
			*get,PFACT_%i_mode%_%j_component%,MODE,%i_mode%,PFACT,,DIREC,_direction(%j_component%)
   *enddo
*enddo
*dim,_tmdirection,CHAR,6,1
_tmdirection(1) = 'X'
_tmdirection(2) = 'Y'
_tmdirection(3) = 'Z'
_tmdirection(4) = 'X'
_tmdirection(5) = 'Y'
_tmdirection(6) = 'Z'
*do,j_component,1,6
    *if,j_component,gt,3,then
        *get,TOTALMASS_%j_component%,ELEM,0,IOR,_tmdirection(%j_component%)
    *else
        *get,TOTALMASS_%j_component%,ELEM,0,MTOT,_tmdirection(%j_component%)
    *endif
*enddo
/gopr
xmlo,ENCODING,ISO-8859-1
xmlo,parm
/xml,parm,xml
fini
/gopr
*get,_walldone,active,,time,wall
_preptime=(_wallbsol-_wallstrt)*3600
_solvtime=(_wallasol-_wallbsol)*3600
_posttime=(_walldone-_wallasol)*3600
_totaltim=(_walldone-_wallstrt)*3600
*get,_dlbratio,active,0,solu,dlbr
*get,_combtime,active,0,solu,comb
*get,_ssmode,active,0,solu,ssmm
*get,_ndofs,active,0,solu,ndof
/fclean				!clean distributed files
/com,--- Total number of nodes = %_numnode%
/com,--- Total number of elements = %_numelem%
/com,--- Element load balance ratio = %_dlbratio%
/com,--- Time to combine distributed files = %_combtime%
/com,--- Sparse memory mode = %_ssmode%
/com,--- Number of DOF = %_ndofs%
/wb,file,end               ! done with WB generated input
