/batch
/config,noeldb,1     ! force off writing results to database
*get,_wallstrt,active,,time,wall
! ANSYS input file written by Workbench version 2022 R2
! File used for geometry attach: C:\Users\Marko\Documents\1 l Dokumenti\1 l Fakulteta\5 l 5. semester\3 l Dinamika togih teles\1 l Seminar\metamaterials\Ansys\Models\Spring_5_07_2.STEP
/title,Spring_simulation--Static Structural (A5)
! ****** Begin Custom Load Command Snippet ******
/COM, ACT Extensions:
/COM,     LSDYNA, 2022.2
/COM,     5f463412-bd3e-484b-87e7-cbc0a665e474, wbex
/COM,/COM,     ANSYSMotion, 2022.2
/COM,     20180725-3f81-49eb-9f31-41364844c769, wbex
/COM,
! ****** End   Custom Load Command Snippet ******
*DIM,_wb_ProjectScratch_dir,string,248
_wb_ProjectScratch_dir(1) = 'C:\Users\Marko\Documents\1 l Dokumenti\1 l Fakulteta\5 l 5. semester\3 l Dinamika togih teles\1 l Seminar\metamaterials\Ansys\_ProjectScratch\Scr85B1\'
*DIM,_wb_SolverFiles_dir,string,248
_wb_SolverFiles_dir(1) = 'C:\Users\Marko\Documents\1 l Dokumenti\1 l Fakulteta\5 l 5. semester\3 l Dinamika togih teles\1 l Seminar\metamaterials\Ansys\Spring_simulation_files\dp0\SYS\MECH\'
*DIM,_wb_userfiles_dir,string,248
_wb_userfiles_dir(1) = 'C:\Users\Marko\Documents\1 l Dokumenti\1 l Fakulteta\5 l 5. semester\3 l Dinamika togih teles\1 l Seminar\metamaterials\Ansys\Spring_simulation_files\user_files\'
/com,--- Data in consistent MKS units. See Solving Units in the help system for more information.
/units,MKS
/nopr
/wb,file,start              !  signify a WB generated input file
/prep7
! Turn off shape checking because checks already performed inside WB mesher.
! See help system for more information.
SHPP,OFF,,NOWARN
/nolist
etcon,set             ! allow ANSYS to choose best KEYOP's for 180x elements, resets any applicable keyopt to MAPDL defaults
/com,*********** Nodes for the whole assembly ***********
nblock,3,,1672
(1i9,3e20.9e3)
        1     1.000000000E-03     0.000000000E+00     1.000000000E-03
        2     2.000000000E-03     0.000000000E+00     1.000000000E-03
        3     1.000000000E-03     0.000000000E+00     2.000000000E-03
        4    -1.000000000E-03     0.000000000E+00     2.000000000E-03
        5     2.098321517E-17     0.000000000E+00     2.000000000E-03
        6    -1.000000000E-03     0.000000000E+00     1.000000000E-03
        7    -2.000000000E-03     0.000000000E+00     1.000000000E-03
        8    -2.000000000E-03     0.000000000E+00    -1.000000000E-03
        9    -2.000000000E-03     0.000000000E+00     0.000000000E+00
       10    -1.000000000E-03     0.000000000E+00    -1.000000000E-03
       11    -1.000000000E-03     0.000000000E+00    -2.000000000E-03
       12     1.000000000E-03     0.000000000E+00    -2.000000000E-03
       13    -6.772360450E-18     0.000000000E+00    -2.000000000E-03
       14     1.000000000E-03     0.000000000E+00    -1.000000000E-03
       15     2.000000000E-03     0.000000000E+00    -1.000000000E-03
       16     2.000000000E-03     0.000000000E+00     0.000000000E+00
       17     2.000000000E-03     1.140000000E-02    -1.000000000E-03
       18     3.185096638E-03     1.245586758E-04    -1.000000000E-03
       19     4.318398866E-03     4.927908914E-04    -1.000000000E-03
       20     5.350375938E-03     1.088603132E-03    -1.000000000E-03
! ... 1501 like lines cut
/wb,elem,start            !  set before creation of elements
/com,*********** Elements for Body 1 "Spring_5_07_2-FreeParts|CirPattern1" ***********
et,1,187
eblock,19,solid,,575
(19i9)
        1        1        1        1        0        0        0        0       10        0        1      206      286      292      232     1246     1498     1247     1245
     1344     1345
        1        1        1        1        0        0        0        0       10        0        2      205      232      286      206     1240     1344     1241     1236
     1245     1246
        1        1        1        1        0        0        0        0       10        0        3      232      286      292      237     1344     1498     1345     1343
     1357     1358
        1        1        1        1        0        0        0        0       10        0        4      205      286      211      206     1241     1266     1237     1236
     1246     1244
        1        1        1        1        0        0        0        0       10        0        5      205      286      232      231     1241     1344     1240     1239
     1340     1337
        1        1        1        1        0        0        0        0       10        0        6      210      292      286      237     1264     1498     1263     1262
     1358     1357
        1        1        1        1        0        0        0        0       10        0        7      231      237      286      232     1338     1357     1340     1337
     1343     1344
        1        1        1        1        0        0        0        0       10        0        8      232      237      292      236     1343     1358     1345     1342
     1354     1355
        1        1        1        1        0        0        0        0       10        0        9      205      211      286      212     1237     1266     1241     1238
     1265     1269
        1        1        1        1        0        0        0        0       10        0       10      206      207      292      210     1242     1252     1247     1243
     1250     1264
! ... 1131 like lines cut
!Material Id = {18218EC1-BD71-4212-AC33-E2661E161A5B}
/wb,elem,end               !  done creating elements
/com,*********** Send User Defined Coordinate System(s) ***********
csys,0
toffst,273.15,  ! Temperature offset from absolute zero
/com,*********** Set Reference Temperature ***********
tref,22.
/wb,mat,start              !  starting to send materials
/com,*********** Send Materials ***********
Temperature = 'TEMP' ! Temperature
MP,DENS,1,1339,	! kg m^-3
MP,EX,1,2898000000,	! Pa
MP,NUXY,1,0.3887,
MP,ALPX,1,0.000117,	! C^-1
MP,KXX,1,0.1702,	! W m^-1 C^-1
MP,C,1,1199,	! J kg^-1 C^-1
MP,UVID,1,826a8b82-6aee-44f6-bdf9-36d1947d58d3
MP,UMID,1,5cc4945b-4e18-4193-9590-e343a797919c

/wb,mat,end                !  done sending materials
!************************* Model Summary ********************
!Spring_5_07_2-FreeParts|CirPattern1,	Plastic, PET (amorphous),	matid,	1
!************************* End Model Summary ********************
! get the diagonal of the bounding box. Needed later for other things
*get,_xmin,node,,mnloc,x
*get,_ymin,node,,mnloc,y
*get,_zmin,node,,mnloc,z
*get,_xmax,node,,mxloc,x
*get,_ymax,node,,mxloc,y
*get,_zmax,node,,mxloc,z
_ASMDIAG=(_xmax-_xmin)*(_xmax-_xmin)+(_ymax-_ymin)*(_ymax-_ymin)+(_zmax-_zmin)*(_zmax-_zmin)
_ASMDIAG=SQRT(_ASMDIAG)
/wb,contact,start          !  starting to send contact
/wb,contact,end            !  done creating contacts
/golist
/wb,load,start             !  starting to send loads
/com,*********** Fixed Supports ***********
CMBLOCK,_FIXEDSU,NODE,       45
(8i10)
         1         2         3         4         5         6         7         8
         9        10        11        12        13        14        15        16
       314       315       316       317       318       319       327       331
       334       335       338       345       346       347       348       353
       357       358       362       366       367       368       375       379
       380       383       389       390       398
cmsel,s,_FIXEDSU
d,all,all
nsel,all
/com,*********** Define Force Using Surface Effect Elements ***********
local,12,0,0.,0.,0.,0.,0.,0.
csys,0
et,2,154
eblock,10,,,14
(15i9)
     1210        2        2        2       12       32       33       60       60      491      499       60      493
     1211        2        2        2       12       48       51       52       52      575      593       52      576
     1212        2        2        2       12       33       48       60       60      498      578       60      499
     1213        2        2        2       12       48       49       51       51      574      583       51      575
     1214        2        2        2       12       17       48       33       33      407      498       33      406
     1215        2        2        2       12       58       60       59       59      632      637       59      631
     1216        2        2        2       12       48       52       56       56      576      602       56      577
     1217        2        2        2       12       48       56       60       60      577      624       60      578
     1218        2        2        2       12       56       59       60       60      623      637       60      624
     1219        2        2        2       12       54       56       55       55      610      614       55      609
     1220        2        2        2       12       52       55       56       56      601      614       56      602
     1221        2        2        2       12       56       57       59       59      622      626       59      623
     1222        2        2        2       12       50       52       51       51      589      593       51      588
     1223        2        2        2       12       52       53       55       55      600      605       55      601
-1
esel,s,type,,2
keyop,2,2,1                ! Apply load in local coordinate system
keyop,2,7,1                ! Use original area so load is constant in large deformation
esel,all
/gst,on,on
fini
*get,_numnode,node,0,count
*get,_numelem,elem,0,count
*get, _MAXELEMNUM, elem, 0, NUM, MAX
*get, _MAXNODENUM, node, 0, NUM, MAX
*get, _MAXELEMTYPE, etyp, 0, NUM, MAX
*get, _MAXREALCONST, rcon, 0, NUM, MAX
/go
/wb,load,end               !  done creating loads
/com,--- Number of total nodes = %_numnode%
/com,--- Number of contact elements = 14
/com,--- Number of spring elements = 0
/com,--- Number of bearing elements = 0
/com,--- Number of solid elements = 575
/com,--- Number of condensed parts = 0
/com,--- Number of total elements = %_numelem%
*get,_wallbsol,active,,time,wall
/com,****************************************************************************
/com,*************************    SOLUTION       ********************************
/com,****************************************************************************
/solu
antype,0                   ! static analysis
_thickRatio=  0     ! Ratio of thick parts in the model
eqsl,sparse,,,,,1
cntr,print,1               ! print out contact info and also make no initial contact an error
dmpoption,emat,no             ! Don't combine emat file for DANSYS
dmpoption,esav,no             ! Don't combine esav file for DANSYS
nldiag,cont,iter           ! print out contact info each equilibrium iteration
rescontrol,,none                 ! Do not keep any restart files
/com,****************************************************
/com,******************* SOLVE FOR LS 1 OF 1 ****************
esel,s,type,,2
nsle
sfe,all,1,pres,1,0.
sfe,all,2,pres,1,-83333.3333333083
sfe,all,3,pres,1,0.
nsel,all
esel,all
/nopr
/gopr
nsub,1,1,1
time,1.
outres,erase
outres,all,none
outres,nsol,all,
outres,rsol,all
outres,eangl,all
outres,etmp,all
outres,veng,all
outres,strs,all,
outres,epel,all,
outres,eppl,all,
outres,cont,all,
! *********** WB SOLVE COMMAND ***********
! check interactive state
*get,ANSINTER_,active,,int
*if,ANSINTER_,ne,0,then
/eof
*endif
solve
/com *************** Write FE CONNECTORS ********* 
CEWRITE,file,ce,,INTE
/com,****************************************************
/com,*************** FINISHED SOLVE FOR LS 1 *************
*get,_wallasol,active,,time,wall
/nopr
*get,_numnode,node,0,count
*get,_numelem,elem,0,count
*get, _MAXELEMNUM, elem, 0, NUM, MAX
*get, _MAXNODENUM, node, 0, NUM, MAX,,,INTERNAL
*get, _MAXELEMTYPE, etyp, 0, NUM, MAX
*get, _MAXREALCONST, rcon, 0, NUM, MAX
*get,_NSOLTHREADS,active,0,ntfs
*get,_NSOLPROCESSES,active,0,npfs
/gopr
/post1
xmlo,ENCODING,ISO-8859-1
xmlo,parm
/xml,parm,xml
fini
/gopr
*get,_walldone,active,,time,wall
_preptime=(_wallbsol-_wallstrt)*3600
_solvtime=(_wallasol-_wallbsol)*3600
_posttime=(_walldone-_wallasol)*3600
_totaltim=(_walldone-_wallstrt)*3600
*get,_dlbratio,active,0,solu,dlbr
*get,_combtime,active,0,solu,comb
*get,_ssmode,active,0,solu,ssmm
*get,_ndofs,active,0,solu,ndof
*get,_sol_end_time,active,0,set,time
*if,_sol_end_time,eq,1.000000,then
/fclean				!clean distributed files
*endif
/com,--- Total number of nodes = %_numnode%
/com,--- Total number of elements = %_numelem%
/com,--- Element load balance ratio = %_dlbratio%
/com,--- Time to combine distributed files = %_combtime%
/com,--- Sparse memory mode = %_ssmode%
/com,--- Number of DOF = %_ndofs%
/wb,file,end               ! done with WB generated input
